[TITLE]
Export input file via plugin ImportEpanetInpFiles. 

[JUNCTIONS]
;ID              	Elev        	Demand      	Pattern 
2   1.5   ;NULL
3   1.5   ;NULL
31   1.5   ;NULL
43   0.8   ;NULL
64   1.3   ;NULL
65   1.3   ;NULL
80   0.8   ;NULL
88   1.5   ;NULL
93   0.9   ;NULL
99   1.5   ;NULL
115   0.7   ;NULL
117   0.7   ;NULL
121   0.7   ;NULL
122   0.7   ;NULL
140   1.5   ;NULL
146   0.8   ;NULL
147   1.5   ;NULL
150   1.5   ;NULL
169   1.5   ;NULL
184   1.5   ;NULL
187   1.5   ;NULL
210   1.0   ;NULL
211   0.7   ;NULL
219   1.0   ;NULL
222   0.8   ;NULL
257   1.5   ;NULL
269   0.8   ;NULL
277   1.5   ;NULL
284   0.95   ;NULL
285   1.5   ;NULL
292   0.9   ;NULL
304   0.9   ;NULL
322   1.5   ;NULL
340   1.0   ;NULL
353   0.7   ;NULL
359   0.7   ;NULL
362   0.7   ;NULL
366   0.8   ;NULL
373   0.8   ;NULL
378   1.0   ;NULL
429   0.8   ;NULL
443   1.5   ;NULL
444   0.87   ;NULL
455   1.0   ;NULL
470   0.8   ;NULL
472   1.5   ;NULL
481   0.8   ;NULL
526   0.8   ;NULL
540   0.7   ;NULL
548   0.9   ;NULL
556   1.5   ;NULL
563   0.9   ;NULL
575   1.0   ;NULL
584   1.0   ;NULL
594   1.0   ;NULL
601   1.5   ;NULL
606   0.8   ;NULL
611   0.7   ;NULL
612   0.7   ;NULL
613   0.7   ;NULL
624   0.7   ;NULL
663   1.5   ;NULL
667   0.8   ;NULL
674   0.9   ;NULL
686   1.5   ;NULL
695   1.5   ;NULL
699   1.5   ;NULL
718   0.7   ;NULL
720   1.5   ;NULL
722   0.9   ;NULL
760   0.8   ;NULL
767   1.5   ;NULL
306   1.5   ;NULL
804   1.5   ;NULL
837   0.8   ;NULL
839   0.6   ;NULL
868   0.8   ;NULL
885   1.3   ;NULL
914   1.5   ;NULL
921   1.0   ;NULL
938   1.5   ;NULL
942   0.9   ;NULL
946   1.5   ;NULL
965   0.9   ;NULL
968   1.2   ;NULL
972   1.5   ;NULL
1001   0.6   ;NULL
1008   0.6   ;NULL
1018   0.8   ;NULL
1063   1.5   ;NULL
1066   0.9   ;NULL
1069   0.9   ;NULL
1071   1.5   ;NULL
1083   0.7   ;NULL
1085   0.9   ;NULL
1099   0.7   ;NULL
1100   1.5   ;NULL
1102   1.5   ;NULL
1128   1.5   ;NULL
1129   0.9   ;NULL
1137   1.0   ;NULL
1151   1.5   ;NULL
1156   1.0   ;NULL
1157   1.0   ;NULL
1162   1.5   ;NULL
1168   0.8   ;NULL
1176   1.5   ;NULL
1177   1.5   ;NULL
1184   1.5   ;NULL
1196   1.5   ;NULL
1199   1.0   ;NULL
1215   1.0   ;NULL
1219   0.9   ;NULL
1239   1.5   ;NULL
1243   0.9   ;NULL
1265   1.5   ;NULL
1266   1.5   ;NULL
1275   0.9   ;NULL
1280   0.8   ;NULL
1289   1.0   ;NULL
1299   0.7   ;NULL
1323   0.9   ;NULL
1330   0.8   ;NULL
1331   0.6   ;NULL
1338   0.7   ;NULL
1342   0.7   ;NULL
1358   1.0   ;NULL
1359   0.8   ;NULL
1375   0.9   ;NULL
1382   1.5   ;NULL
1390   1.2   ;NULL
1411   0.7   ;NULL
1415   1.3   ;NULL
1416   1.1   ;NULL
1427   1.0   ;NULL
1434   1.0   ;NULL
1437   0.8   ;NULL
1441   0.8   ;NULL
1570   1.5   ;NULL
1580   1.0   ;NULL
1581   0.8   ;NULL
1583   0.8   ;NULL
171   1.0   ;NULL
172   1.0   ;NULL
173   1.5   ;NULL
174   1.0   ;NULL
175   1.0   ;NULL
384   0.7   ;NULL
385   0.8   ;NULL
390   1.5   ;NULL
391   1.0   ;NULL
392   0.7   ;NULL
134   0.9   ;NULL
163   1.3   ;NULL
176   1.1   ;NULL
177   1.1   ;NULL
178   1.0   ;NULL
179   0.8   ;NULL
180   0.8   ;NULL
181   0.8   ;NULL
182   0.8   ;NULL
183   0.7   ;NULL
16   1.5   ;NULL
17   1.5   ;NULL
18   1.1   ;NULL
19   1.5   ;NULL
20   1.0   ;NULL
21   1.0   ;NULL
27   1.0   ;NULL
4   0.9   ;NULL
5   1.0   ;NULL
6   1.0   ;NULL
7   0.8   ;NULL
8   1.5   ;NULL
9   0.8   ;NULL
11   0.8   ;NULL
10   1.5   ;NULL
12   0.8   ;NULL
13   0.7   ;NULL
1   0.8   ;NULL
14   1.5   ;NULL
22   1.5   ;NULL
23   1.5   ;NULL
24   1.5   ;NULL
25   1.5   ;NULL
26   1.5   ;NULL
28   1.5   ;NULL
29   1.5   ;NULL
30   1.5   ;NULL
32   1.5   ;NULL
33   1.5   ;NULL
34   1.5   ;NULL
15   1.5   ;NULL

[RESERVOIRS]
;ID              	Head        	Pattern     
TXU2   5.0   ;NULL

[TANKS]
;ID              	Elevation   	InitLevel   	MinLevel    	MaxLevel    	Diameter    	MinVol      	VolCurve

[PIPES]
;ID              	Node1           	Node2           	Length      	Diameter    	Roughness   	MinorLoss   	Status
OPP_TA_24845(1)   172   171   100.0   125.0   140.0   0.0   OPEN   ;NULL
3   172   868   30.0   50.0   140.0   0.0   OPEN   ;NULL
OPP_TA_24856(1)   174   575   70.0   125.0   140.0   0.0   OPEN   ;NULL
OPP_TA_24856(2)   175   174   80.0   125.0   140.0   0.0   OPEN   ;NULL
OPP-TA_24856(3)   173   175   80.0   125.0   140.0   0.0   OPEN   ;NULL
7   174   384   15.0   50.0   140.0   0.0   OPEN   ;NULL
8   175   385   20.0   50.0   140.0   0.0   OPEN   ;NULL
opp_ta_18114   390   173   50.0   125.0   140.0   0.0   OPEN   ;NULL
OPP_TA_24845(2)   391   172   136.0   125.0   140.0   0.0   OPEN   ;NULL
12   391   392   15.0   50.0   140.0   0.0   OPEN   ;NULL
OPP_TA_27378   601   1411   136.0   125.0   140.0   0.0   OPEN   ;NULL
OPP_TA_27377(1)   134   718   70.0   125.0   140.0   0.0   OPEN   ;NULL
OPP_TA_27377(2)   472   134   72.0   125.0   140.0   0.0   OPEN   ;NULL
OPP_TA_27379   720   722   131.5   125.0   140.0   0.0   OPEN   ;NULL
OPP-TA-20350(3)   176   177   150.0   125.0   140.0   0.0   OPEN   ;NULL
OPP-TA-20350(1)   187   163   150.0   125.0   140.0   0.0   OPEN   ;NULL
OPP-TA-20350(2)   163   176   100.0   125.0   140.0   0.0   OPEN   ;NULL
OPP-TA-20350(4)   177   178   100.0   125.0   140.0   0.0   OPEN   ;NULL
opp_ta_18116   178   179   15.0   50.0   140.0   0.0   OPEN   ;NULL
OPP-TA-20350(5)   178   965   50.0   125.0   140.0   0.0   OPEN   ;NULL
OPP_TA_15753(1)   699   1137   150.0   125.0   140.0   0.0   OPEN   ;NULL
opp_ta_15759   429   1008   51.0   50.0   140.0   0.0   OPEN   ;NULL
opp_ta_18239(1)   181   182   50.0   50.0   140.0   0.0   OPEN   ;NULL
opp-ta_18239(2)   182   183   20.0   50.0   140.0   0.0   OPEN   ;NULL
OPP_TA_15753(2)   1137   429   200.0   125.0   140.0   0.0   OPEN   ;NULL
opp_ta_15760   180   1001   18.0   50.0   140.0   0.0   OPEN   ;NULL
OPP_TA_15753(3)   429   180   35.0   125.0   140.0   0.0   OPEN   ;NULL
OPP_TA_15753(4)   180   181   50.0   125.0   140.0   0.0   OPEN   ;NULL
OPP_TA_15753(5)   181   322   100.0   125.0   140.0   0.0   OPEN   ;NULL
OPP_TA_15908   699   16   75.0   125.0   140.0   0.0   OPEN   ;NULL
OPP_TA_15911   17   1128   69.0   50.0   140.0   0.0   OPEN   ;NULL
OPP_TA_24843(1)   1128   1390   67.0   125.0   140.0   0.0   OPEN   ;NULL
OPP_TA_24843(2)   1390   563   66.0   125.0   140.0   0.0   OPEN   ;NULL
OPP_TA_24843(3)   563   1018   300.0   125.0   140.0   0.0   OPEN   ;NULL
OPP_TA_15910(1)   1390   18   50.0   50.0   140.0   0.0   OPEN   ;NULL
OPP_TA_18615   18   470   27.0   50.0   140.0   0.0   OPEN   ;NULL
OPP_TA_15910(2)   18   1129   20.0   50.0   140.0   0.0   OPEN   ;NULL
opp_ta_20342(1)   686   1570   186.0   125.0   140.0   0.0   OPEN   ;NULL
opp_ta_20342(5)   1100   1102   50.0   125.0   140.0   0.0   OPEN   ;NULL
opp_ta_20342(6)   1102   322   50.0   125.0   140.0   0.0   OPEN   ;NULL
opp_ta_20342(3)   1570   19   100.0   125.0   140.0   0.0   OPEN   ;NULL
opp_ta_20342(4)   19   1100   20.0   125.0   140.0   0.0   OPEN   ;NULL
opp_ta_15758   19   1099   20.0   50.0   140.0   0.0   OPEN   ;NULL
OPP_TA_24844(1)   1570   584   200.0   125.0   140.0   0.0   OPEN   ;NULL
OPP_TA_24844(2)   584   20   33.0   125.0   140.0   0.0   OPEN   ;NULL
OPP_TA_24844(3)   20   21   70.0   125.0   140.0   0.0   OPEN   ;NULL
OPP_TA_24844(4)   21   27   60.0   125.0   140.0   0.0   OPEN   ;NULL
OPP_TA_24844(5)   27   1018   70.0   125.0   140.0   0.0   OPEN   ;NULL
opp_ta_15756   21   359   27.0   50.0   125.0   0.0   OPEN   ;NULL
opp_ta_15755   27   362   27.0   50.0   140.0   0.0   OPEN   ;NULL
opp_ta_15757   20   353   35.0   50.0   140.0   0.0   OPEN   ;NULL
OPP_TA_30663(1)   760   624   70.0   125.0   140.0   0.0   OPEN   ;NULL
OPP_TA_30663(2)   760   674   17.0   125.0   140.0   0.0   OPEN   ;NULL
OPP_TA_30663(3)   584   760   100.0   125.0   140.0   0.0   OPEN   ;NULL
OPP_TA_30664   20   606   136.0   125.0   140.0   0.0   OPEN   ;NULL
OPP_TA_30665(1)   667   612   71.0   125.0   140.0   0.0   OPEN   ;NULL
OPP_TA_30665(2)   674   667   60.0   125.0   140.0   0.0   OPEN   ;NULL
OPP_TA_30666   606   611   92.0   125.0   140.0   0.0   OPEN   ;NULL
opp_ta_24855(1)   171   1416   150.0   125.0   140.0   0.0   OPEN   ;NULL
opp_ta_24855(2)   163   1416   50.0   125.0   140.0   0.0   OPEN   ;NULL
opp_ta_15126   1416   1580   105.0   125.0   140.0   0.0   OPEN   ;NULL
opp_ta_24855   575   171   10.0   125.0   140.0   0.0   OPEN   ;NULL
opp_ta_20205(1)   4   1583   41.5   125.0   140.0   0.0   OPEN   ;NULL
opp_ta_20205(2)   5   4   50.0   125.0   140.0   0.0   OPEN   ;NULL
opp_ta_20205(3)   885   5   50.0   125.0   140.0   0.0   OPEN   ;NULL
opp_ta_20205(4)   885   6   50.0   125.0   140.0   0.0   OPEN   ;NULL
opp_ta_20205(5)   6   7   50.0   125.0   140.0   0.0   OPEN   ;NULL
0pp_ta_2(2)   695   914   150.0   125.0   140.0   0.0   OPEN   ;NULL
0pp_ta_2(4)   2   3   80.0   125.0   140.0   0.0   OPEN   ;NULL
0pp_ta_2(3)   914   2   100.0   125.0   140.0   0.0   OPEN   ;NULL
opp_ta_27370(3)   804   1427   60.0   125.0   140.0   0.0   OPEN   ;NULL
0pp_ta_1(2)   8   169   100.0   125.0   140.0   0.0   OPEN   ;NULL
0pp_ta_2(1)   8   695   75.0   125.0   140.0   0.0   OPEN   ;NULL
opp_ta_16120(1)   31   1157   57.0   125.0   140.0   0.0   OPEN   ;NULL
opp_ta_16120(2)   1157   43   50.0   125.0   140.0   0.0   OPEN   ;NULL
opp_ta_15769   9   1083   80.0   50.0   140.0   0.0   OPEN   ;NULL
opp_ta_20343(2)   968   455   70.0   125.0   140.0   0.0   OPEN   ;NULL
opp_ta_20343(3)   455   1219   20.0   125.0   140.0   0.0   OPEN   ;NULL
opp_ta_20343(6)   1199   9   20.0   125.0   140.0   0.0   OPEN   ;NULL
opp_ta_20343(7)   1196   1199   80.0   125.0   140.0   0.0   OPEN   ;NULL
opp_ta_20344(3)   1215   11   80.0   125.0   140.0   0.0   OPEN   ;NULL
opp_ta_20344(2)   64   11   150.0   125.0   140.0   0.0   OPEN   ;NULL
opp_ta_20344(1)   31   64   39.0   125.0   140.0   0.0   OPEN   ;NULL
opp_ta_20344(4)   10   1215   50.0   125.0   140.0   0.0   OPEN   ;NULL
opp_ta_20346(1)   177   210   65.0   125.0   140.0   0.0   OPEN   ;NULL
opp_ta_20346(2)   210   921   15.0   125.0   140.0   0.0   OPEN   ;NULL
opp_ta_20346(3)   921   219   35.0   125.0   140.0   0.0   OPEN   ;NULL
opp_ta_20346(4)   219   1085   30.0   125.0   140.0   0.0   OPEN   ;NULL
opp_ta_20349(1)   921   965   85.0   125.0   140.0   0.0   OPEN   ;NULL
opp_ta_20349(2)   65   965   50.0   125.0   140.0   0.0   OPEN   ;NULL
opp_ta_20343(0)   972   65   40.0   125.0   140.0   0.0   OPEN   ;NULL
opp_ta_20343(1)   65   968   30.0   125.0   140.0   0.0   OPEN   ;NULL
opp_ta_15090(1)   1085   12   38.0   125.0   140.0   0.0   OPEN   ;NULL
opp_ta_15090(2)   12   839   18.0   125.0   140.0   0.0   OPEN   ;NULL
2   1196   10   2.0   125.0   140.0   0.0   OPEN   ;NULL
4   10   443   30.0   125.0   140.0   0.0   OPEN   ;NULL
11   443   1063   30.0   125.0   140.0   0.0   OPEN   ;NULL
13   1063   1071   20.0   125.0   140.0   0.0   OPEN   ;NULL
24   946   99   30.0   125.0   140.0   0.0   OPEN   ;NULL
26   99   88   50.0   125.0   140.0   0.0   OPEN   ;NULL
27   88   1382   80.0   125.0   140.0   0.0   OPEN   ;NULL
opp_ta_15866   99   93   55.0   125.0   140.0   0.0   OPEN   ;NULL
opp_ta_20342(7)   322   972   100.0   125.0   140.0   0.0   OPEN   ;NULL
opp_ta_20342(8)   972   31   20.0   180.0   140.0   0.0   OPEN   ;NULL
opp_ta_20342(9)   31   663   120.0   125.0   140.0   0.0   OPEN   ;NULL
opp_ta_20342(10)   663   1265   120.0   125.0   140.0   0.0   OPEN   ;NULL
opp_ta_20342(11)   1265   1266   120.0   125.0   140.0   0.0   OPEN   ;NULL
36   1382   556   50.0   125.0   140.0   0.0   OPEN   ;NULL
37   556   150   50.0   125.0   140.0   0.0   OPEN   ;NULL
38   150   1239   80.0   125.0   140.0   0.0   OPEN   ;NULL
39   1239   1266   80.0   125.0   140.0   0.0   OPEN   ;NULL
opp_ta_15867(1)   946   1415   30.0   50.0   140.0   0.0   OPEN   ;NULL
opp_ta_15867(2)   1415   594   35.0   50.0   140.0   0.0   OPEN   ;NULL
opp_ta_15867(3)   594   1441   20.0   50.0   140.0   0.0   OPEN   ;NULL
opp_ta_15867(4)   1441   540   40.0   50.0   140.0   0.0   OPEN   ;NULL
opp_ta_15867(5)   540   122   30.0   50.0   140.0   0.0   OPEN   ;NULL
opp_ta_15868(2)   121   117   30.0   50.0   140.0   0.0   OPEN   ;NULL
opp_ta_15868(3)   122   121   5.0   50.0   140.0   0.0   OPEN   ;NULL
opp_ta_15868(4)   122   1342   10.0   50.0   140.0   0.0   OPEN   ;NULL
opp_ta_15868(5)   1342   1338   30.0   50.0   140.0   0.0   OPEN   ;NULL
opp_ta_16151   1184   1342   79.0   125.0   140.0   0.0   OPEN   ;NULL
opp_ta_16154   140   1359   42.0   125.0   140.0   0.0   OPEN   ;NULL
opp_ta_16034(1)   1162   378   40.0   125.0   140.0   0.0   OPEN   ;NULL
opp_ta_16035   378   1168   20.0   50.0   140.0   0.0   OPEN   ;NULL
opp_ta_16034(2)   378   1156   33.0   125.0   140.0   0.0   OPEN   ;NULL
opp_ta_16034(3)   1156   373   43.0   125.0   140.0   0.0   OPEN   ;NULL
opp_ta_20336(1)   1176   1289   40.0   125.0   140.0   0.0   OPEN   ;NULL
opp_ta_20336(2)   1289   481   70.0   125.0   140.0   0.0   OPEN   ;NULL
opp_ta_20336(3)   481   1299   60.0   125.0   140.0   0.0   OPEN   ;NULL
opp_ta_15411(1)   1177   1275   84.0   125.0   140.0   0.0   OPEN   ;NULL
opp_ta_15411(2)   1275   1280   20.0   125.0   140.0   0.0   OPEN   ;NULL
opp_ta_15414   1275   13   10.0   50.0   140.0   0.0   OPEN   ;NULL
opp_ta_16033(1)   150   767   97.5   125.0   140.0   0.0   OPEN   ;NULL
opp_ta_16033(2)   767   285   50.0   125.0   140.0   0.0   OPEN   ;NULL
opp_ta_16033(3)   285   277   20.0   125.0   140.0   0.0   OPEN   ;NULL
opp_ta_16033(4)   277   140   30.0   125.0   140.0   0.0   OPEN   ;NULL
opp_ta_16033(5)   140   257   40.0   125.0   140.0   0.0   OPEN   ;NULL
opp_ta_16033(6)   257   1184   20.0   125.0   140.0   0.0   OPEN   ;NULL
opp_ta_16033(7)   1184   1177   50.0   125.0   140.0   0.0   OPEN   ;NULL
opp_ta_16033(8)   1177   1176   30.0   125.0   140.0   0.0   OPEN   ;NULL
opp_ta_16033(9)   1176   1162   30.0   125.0   140.0   0.0   OPEN   ;NULL
opp_ta_16033(10)   663   1162   70.0   125.0   140.0   0.0   OPEN   ;NULL
opp-ta_20335(1)   1358   1330   39.0   125.0   140.0   0.0   OPEN   ;NULL
opp-ta_20335(2)   257   1358   20.0   125.0   140.0   0.0   OPEN   ;NULL
opp_ta_20343(4)   1219   1   40.0   125.0   140.0   0.0   OPEN   ;NULL
opp_ta_20343(5)   1   9   80.0   125.0   140.0   0.0   OPEN   ;NULL
opp_ta_18113(1)   14   391   40.0   50.0   140.0   0.0   OPEN   ;NULL
opp_ta_18113(2)   14   472   30.0   125.0   140.0   0.0   OPEN   ;NULL
opp_ta_18113(3)   472   601   30.0   125.0   140.0   0.0   OPEN   ;NULL
opp_ta_18113(4)   601   720   10.0   125.0   140.0   0.0   OPEN   ;NULL
opp_ta_18113(5)   720   147   30.0   125.0   140.0   0.0   OPEN   ;NULL
1   429   180   1000.0   12.0   100.0   0.0   OPEN   ;NULL
5   173   14   5.0   125.0   140.0   0.0   OPEN   ;NULL
6   3   804   85.0   125.0   140.0   0.0   OPEN   ;NULL
9   804   1196   50.0   125.0   140.0   0.0   OPEN   ;NULL
10   1071   946   60.0   125.0   140.0   0.0   OPEN   ;NULL
opp_ta_14954   23   942   34.0   50.0   140.0   0.0   OPEN   ;NULL
19   22   25   100.0   125.0   140.0   0.0   OPEN   ;NULL
20   25   26   80.0   125.0   140.0   0.0   OPEN   ;NULL
21   26   938   25.0   125.0   140.0   0.0   OPEN   ;NULL
22   938   28   60.0   125.0   140.0   0.0   OPEN   ;NULL
32   15   24   75.0   125.0   140.0   0.0   OPEN   ;NULL
33   306   15   25.0   125.0   140.0   0.0   OPEN   ;NULL
34   15   8   10.0   125.0   140.0   0.0   OPEN   ;NULL
35   169   390   20.0   125.0   140.0   0.0   OPEN   ;NULL
40   147   184   20.0   125.0   140.0   0.0   OPEN   ;NULL
45   28   23   160.0   125.0   140.0   0.0   OPEN   ;NULL
46   23   29   190.0   125.0   140.0   0.0   OPEN   ;NULL
47   29   30   260.0   125.0   140.0   0.0   OPEN   ;NULL
48   24   22   150.0   125.0   140.0   0.0   OPEN   ;NULL
49   187   699   15.0   125.0   140.0   0.0   OPEN   ;NULL
50   16   17   10.0   125.0   140.0   0.0   OPEN   ;NULL
opp_ta_15088   443   444   64.0   125.0   140.0   0.0   OPEN   ;NULL
opp_ta_15089   1219   146   78.0   125.0   140.0   0.0   OPEN   ;NULL
opp_ta_15092   455   837   51.0   50.0   140.0   0.0   OPEN   ;NULL
opp_ta+15410   1239   1243   68.0   125.0   140.0   0.0   OPEN   ;NULL
opp_ta_15754   1018   366   20.0   50.0   140.0   0.0   OPEN   ;NULL
0pp_ta_15767   1063   1066   68.0   50.0   140.0   0.0   OPEN   ;NULL
opp_ta_15768   1071   1069   38.0   50.0   140.0   0.0   OPEN   ;NULL
opp_ta_16017(1)   88   1323   40.0   125.0   140.0   0.0   OPEN   ;NULL
opp_ta_16017(2)   1323   526   20.0   125.0   140.0   0.0   OPEN   ;NULL
opp_ta_16122   1157   80   35.0   125.0   140.0   0.0   OPEN   ;NULL
opp_ta_20332(2)   556   1375   30.0   125.0   140.0   0.0   OPEN   ;NULL
opp_ta_18115   184   187   50.0   125.0   140.0   0.0   OPEN   ;NULL
opp_ta_18117   277   269   48.0   125.0   140.0   0.0   OPEN   ;NULL
opp_ta_18118   767   292   48.0   125.0   140.0   0.0   OPEN   ;NULL
opp_ta_18119   277   304   25.0   50.0   140.0   0.0   OPEN   ;NULL
opp_ta_18238   1102   340   30.0   50.0   140.0   0.0   OPEN   ;NULL
opp_ta_20206   938   885   62.5   125.0   140.0   0.0   OPEN   ;NULL
opp_ta_20332(1)   556   548   64.0   125.0   140.0   0.0   OPEN   ;NULL
opp_ta_20333   285   284   65.0   125.0   140.0   0.0   OPEN   ;NULL
opp_ta_20334   121   1331   43.0   125.0   140.0   0.0   OPEN   ;NULL
opp_ta_20347   219   222   45.0   125.0   140.0   0.0   OPEN   ;NULL
opp_ta_20348   210   211   81.0   125.0   140.0   0.0   OPEN   ;NULL
opp-ta_20357   563   1137   94.0   125.0   140.0   0.0   OPEN   ;NULL
opp_ta_17674(2)   1580   1581   30.0   125.0   140.0   0.0   OPEN   ;NULL
opp_ta_17674(1)   176   1580   47.0   125.0   140.0   0.0   OPEN   ;NULL
opp_ta_27370(1)   575   1434   92.0   125.0   140.0   0.0   OPEN   ;NULL
opp_ta_27370(2)   1434   1427   85.0   125.0   140.0   0.0   OPEN   ;NULL
opp_ta_30667   674   613   92.5   125.0   140.0   0.0   OPEN   ;NULL
15   686   34   10.0   125.0   140.0   0.0   OPEN   ;NULL
16   1151   686   50.0   125.0   140.0   0.0   OPEN   ;NULL
17   1128   1151   100.0   125.0   140.0   0.0   OPEN   ;NULL
18   34   33   206.0   125.0   140.0   0.0   OPEN   ;NULL
23   33   32   200.0   125.0   140.0   0.0   OPEN   ;NULL
25   32   30   360.0   125.0   140.0   0.0   OPEN   ;NULL
28   117   115   15.0   50.0   140.0   0.0   OPEN   ;NULL
29   1085   146   35.0   125.0   140.0   0.0   OPEN   ;NULL
30   146   1437   15.0   140.0   140.0   0.0   OPEN   ;NULL

[PUMPS]
;ID              	Node1           	Node2           	Parameters
14   TXU2   306      head 1      ;NULL

[VALVES]
;ID              	Node1           	Node2           	Diameter    	Type	Setting     	MinorLoss

[DEMANDS]
;Junction        	Demand      	Pattern         	Category
2   0.04872   
3   0.0348   
31   0.0   
43   0.05916   
64   0.02088   
65   0.00696   
80   0.0522   
88   0.04524   
93   0.06264   
99   0.0348   
115   0.02088   
117   0.02784   
121   0.0   
122   0.05568   
140   0.02784   
146   0.0485   
147   0.02088   
150   0.02088   
169   0.04872   
184   0.02784   
187   0.0   
210   0.0   
211   0.045   
219   0.05568   
222   0.11136   
257   0.04176   
269   0.11136   
277   0.02784   
284   0.0487   
285   0.06264   
292   0.0696   
304   0.0348   
322   0.11136   
340   0.02088   
353   0.08352   
359   0.08352   
362   0.02088   
366   0.042   
373   0.1044   
378   0.05568   
429   0.1392   
443   0.05568   
444   0.09   
455   0.04872   
470   0.0348   
472   0.0348   
481   0.0522   
526   0.02   
540   0.02784   
548   0.0696   
556   0.02784   
563   0.09048   
575   0.02784   
584   0.0   
594   0.0696   
601   0.02088   
606   0.06264   
611   0.08352   
612   0.08352   
613   0.0696   
624   0.0696   
663   0.02088   
667   0.02088   
674   0.04872   
686   0.0348   
695   0.02784   
699   0.0   
718   0.04872   
720   0.0   
722   0.06264   
760   0.0   
767   0.09048   
306   0.0348   
804   0.0696   
837   0.084   
839   0.02784   
868   0.06264   
885   0.04176   
914   0.09744   
921   0.0   
938   0.04872   
942   0.042   
946   0.02088   
965   0.07308   
968   0.01392   
972   0.0   
1001   0.02784   
1008   0.05568   
1018   0.05568   
1063   0.04176   
1066   0.084   
1069   0.035   
1071   0.02088   
1083   0.0696   
1085   0.0696   
1099   0.02088   
1100   0.00696   
1102   0.0417   
1128   0.0   
1129   0.02784   
1137   0.02784   
1151   0.0696   
1156   0.0   
1157   0.0696   
1162   0.0   
1168   0.05568   
1176   0.05568   
1177   0.0348   
1184   0.02784   
1196   0.02784   
1199   0.0   
1215   0.0974   
1219   0.01392   
1239   0.0696   
1243   0.055   
1265   0.02784   
1266   0.09048   
1275   0.07308   
1280   0.02784   
1289   0.02784   
1299   0.11136   
1323   0.014   
1330   0.05568   
1331   0.0522   
1338   0.0696   
1342   0.0   
1358   0.02784   
1359   0.08352   
1375   0.0626   
1382   0.02088   
1390   0.04872   
1411   0.09744   
1415   0.0   
1416   0.02784   
1427   0.0   
1434   0.02784   
1437   0.0   
1441   0.02088   
1570   0.0348   
1580   0.0696   
1581   0.02088   
1583   0.04872   
171   0.04872   
172   0.0   
173   0.0   
174   0.02088   
175   0.0   
384   0.05568   
385   0.09744   
390   0.06264   
391   0.0696   
392   0.0696   
134   0.05568   
163   0.02088   
176   0.04872   
177   0.0696   
178   0.06612   
179   0.02088   
180   0.0   
181   0.0   
182   0.0   
183   0.02784   
16   0.05568   
17   0.0568   
18   0.0   
19   0.0696   
20   0.0   
21   0.0   
27   0.0   
4   0.04872   
5   0.0522   
6   0.0696   
7   0.0696   
8   0.0   
9   0.02088   
11   0.0696   
10   0.04176   
12   0.05568   
13   0.01392   
1   0.04176   
14   0.0   
22   0.0   
23   0.04176   
24   0.0   
25   0.0   
26   0.0   
28   0.0   
29   0.0   
30   0.0   
32   0.0   
33   0.0   
34   0.0   
15   0.0   

[STATUS]
;ID              	Status/Setting

[PATTERNS]
;ID              	Multipliers
1   0.22 0.13 0.16 0.16 0.42 0.69
1   0.71 0.67 0.55 0.46 0.73 1
1   1 0.73 0.71 0.68 0.63 0.56
1   0.59 0.61 0.62 0.4 0.27 0.16

[CURVES]
;ID              	X-Value     	Y-Value
;PUMP:
   1   0   29
;PUMP:
   1   2   27
;PUMP:
   1   5   24
;PUMP:
   1   7   21
;PUMP:
   1   10   18

[CONTROLS]
;------------------------------------------------------------------ 

[RULES]
;Rules 

[ENERGY]
Global Efficiency   75
Global Price    0
Demand Charge   0

[REACTIONS]
;Type     	Pipe/Tank       	Coefficient

[REACTIONS]
;Reactions

[EMITTERS]
;Junction        	Coefficient

[SOURCES]
;Node            	Type        	Quality     	Pattern

[MIXING]
;Tank            	Model

[TIMES]
;Times
Duration   24:00
Hydraulic Timestep    1:00
Quality Timestep   0:05
Pattern Timestep   1:00
Pattern Start   0:00
Report Timestep   1:00
Report Start   0:00
Start ClockTime   12 am
Statistic   NONE

[REPORT]
;Report
Status   No
Summary    No
Page   0

[OPTIONS]
;Options
Units   LPS
Headloss    H-W
Specific Gravity   1
Viscosity   1
Trials   40
Accuracy   0.001
CHECKFREQ   2
MAXCHECK   10
DAMPLIMIT   0
Unbalanced   Continue 10
Pattern   1
Demand Multiplier   1.0
Emitter Exponent   0.5
Quality   None mg/L
Diffusivity   1
Tolerance   0.01

[COORDINATES]
;Coordinates
2   106.60643209347937   10.879538972661477
3   106.60628408621496   10.878958417035973
31   106.60694166387158   10.875088635241243
43   106.60599811343768   10.875377871823616
64   106.60699428611599   10.87549035965557
65   106.60701959343793   10.875343918660503
80   106.60658151193314   10.875490154945394
88   106.6035157030207   10.87521828479615
93   106.60466419157136   10.875403580402187
99   106.60415591941586   10.875822359943578
115   106.60480344988211   10.875612905041784
117   106.6049456595353   10.8756073562089
121   106.60522640151216   10.875397107812654
122   106.60530752386526   10.875363070716242
140   106.60486759884449   10.8745328464887
146   106.6065010848483   10.87658871216431
147   106.60921392550942   10.879815957418916
150   106.60434235113712   10.873593194162899
169   106.60832918054058   10.881555903273643
184   106.60930379492052   10.879632015798332
187   106.6095007612912   10.879252611942713
210   106.60751309470288   10.876236736061431
211   106.60741077422936   10.876758383256465
219   106.6071849002089   10.876350065192987
222   106.60702427243942   10.875985210688116
257   106.60496243753968   10.874721656361402
269   106.60463071323426   10.874823161187404
277   106.6047692539634   10.874376593492382
284   106.60447044723996   10.874815199419206
285   106.60469582412595   10.87428566670145
292   106.60418250045653   10.874357921276367
304   106.60495506876543   10.874286974423693
322   106.60774451588279   10.874968451249927
340   106.60831875585787   10.874943512649551
353   106.60885256442985   10.875593292975978
359   106.60875340495238   10.875684516907654
362   106.60864881782425   10.875764817067461
366   106.60841048253991   10.87570717246917
373   106.60605193511073   10.873564572531834
378   106.60592483908779   10.873994528073629
429   106.6081256981076   10.876294149549791
443   106.60520114725813   10.876849230327114
444   106.60558435922185   10.87650043859947
455   106.60633242569014   10.875876213272788
470   106.60912739450026   10.87811100604918
472   106.60895218785858   10.880337424870927
481   106.60550890132622   10.87362177426414
526   106.60406872148356   10.875192469619229
540   106.60549610306951   10.875677604689734
548   106.60413472929315   10.874830326554983
556   106.60378016516883   10.874130031658588
563   106.609301420255   10.877621432203187
575   106.60708730458718   10.879236011342105
584   106.60904264282541   10.875759543014935
594   106.60506020048658   10.875777992003018
601   106.60908312839294   10.880072962279753
606   106.60925145892608   10.876785266056801
611   106.60984348699046   10.8774690814183
612   106.60984752957528   10.87741547010753
613   106.61008732388788   10.877155023652985
624   106.61015097443439   10.877166183339014
663   106.60668007007538   10.874173630626121
667   106.60930767864538   10.876786126562735
674   106.60949010589738   10.876390580680692
686   106.61072975401655   10.876830095526193
695   106.60750141727998   10.881505518792439
699   106.60951911878124   10.879213602276334
718   106.60785085721386   10.879687337643631
720   106.60910263322609   10.88002936324086
722   106.60803326939865   10.879471478664117
760   106.60957730382931   10.876415822187353
767   106.60458453875871   10.87415366451413
306   106.60789978737536   10.88240092148793
804   106.6059014556496   10.877674670619294
837   106.60673747300663   10.875944363265674
839   106.60661811365138   10.876113712903425
868   106.60753067452885   10.879747789112322
885   106.6056054327519   10.878656378955792
914   106.60651929155766   10.879910711836704
921   106.60747976689963   10.87623992043699
938   106.60608043280864   10.878465919995923
942   106.60434064135094   10.876490112527911
946   106.60446684888379   10.876101163857776
965   106.60733396492938   10.87552749325428
968   106.60704447256548   10.875545004641138
972   106.6069915732142   10.875076588158574
1001   106.60827225279047   10.876240763157115
1008   106.60845530041513   10.876602682321519
1018   106.60851494944838   10.875936507351536
1063   106.60495791092161   10.87660369930804
1066   106.60542143677006   10.87633751614756
1069   106.60519180695692   10.876191948720047
1071   106.60483285072972   10.876471755068824
1083   106.6063220996197   10.87666902604891
1085   106.6068429925286   10.876467093996231
1099   106.60865916623663   10.874970225007596
1100   106.6085350877573   10.874633857869975
1102   106.60826466023148   10.874769273936774
1128   106.6100186432951   10.878221867559434
1129   106.60947852926185   10.878431862604183
1137   106.60865909024626   10.878129161157574
1151   106.61042394225474   10.877434503337344
1156   106.60576891837219   10.873778172836673
1157   106.60648804328024   10.875204105105102
1162   106.60605352981524   10.87431609933303
1168   106.60608279393563   10.873929900871692
1176   106.60579643129005   10.874381545171158
1177   106.60554171815147   10.87448169942688
1184   106.60508534646672   10.87470760143165
1196   106.60542602613536   10.877099996090449
1199   106.60588998223669   10.876599038234872
1215   106.60583906897047   10.876618112782456
1219   106.6062004814511   10.875925548944757
1239   106.60497340002593   10.873049236239376
1243   106.60531134892683   10.873431661538646
1265   106.60643052336152   10.872627014674865
1266   106.60614368805885   10.872048754704858
1275   106.60523787880646   10.873775764240284
1280   106.60518002520354   10.87359800951638
1289   106.60568609109366   10.874208547414533
1299   106.6059798739522   10.873312002781809
1323   106.6037635287219   10.875221153149306
1330   106.60497391095193   10.87502570178206
1331   106.60503196145442   10.875079877817537
1338   106.60573711788805   10.875071314694871
1342   106.6053691699987   10.875303358355104
1358   106.60485975050153   10.874882284130747
1359   106.60473951707695   10.874842204995517
1375   106.60409616529567   10.874102859361711
1382   106.60312331232672   10.874518406657822
1390   106.60954593792607   10.877924705688757
1411   106.60793689273707   10.879476068028904
1415   106.60474771713753   10.875987153351321
1416   106.608305709154   10.878505489074271
1427   106.60653478799705   10.877509453485388
1434   106.60679585308807   10.878227813081754
1437   106.60640700286915   10.87663001644783
1441   106.60519561696813   10.875892066906655
1570   106.60943933604835   10.875430829758482
1580   106.60783644659895   10.877698334532777
1581   106.60761759126328   10.877729886415931
1583   106.60587620573187   10.879923045775037
171   106.60712788758791   10.879227209937818
172   106.60730120590242   10.87987858622939
173   106.6086710887924   10.880875815634075
174   106.60724670710361   10.87989464903322
175   106.60789552964538   10.880371656941215
384   106.60712891357215   10.87997042065899
385   106.60778663413471   10.880481718509898
390   106.60844965156889   10.881309798172516
391   106.60807705915978   10.880458305925751
392   106.60814331864354   10.88037603368039
134   106.60835911430237   10.879999255620909
163   106.60863614342212   10.878211769724684