[TITLE]
Export input file via plugin ImportEpanetInpFiles. 

[JUNCTIONS]
;ID              	Elev        	Demand      	Pattern         
 2               	1.5         	0.04872     	1             	;Pattern 1
 3               	1.5         	0.0348      	1             	;Pattern 1
 31              	1.5         	0.0         	1             	;Pattern 1
 43              	0.8         	0.05916     	1             	;Pattern 1
 64              	1.3         	0.02088     	1             	;Pattern 1
 65              	1.3         	0.00696     	1             	;Pattern 1
 80              	0.8         	0.0522      	1             	;Pattern 1
 88              	1.5         	0.04524     	1             	;Pattern 1
 93              	0.9         	0.06264     	1             	;Pattern 1
 99              	1.5         	0.0348      	1             	;Pattern 1
 115             	0.7         	0.02088     	1             	;Pattern 1
 117             	0.7         	0.02784     	1             	;Pattern 1
 121             	0.7         	0.0         	1             	;Pattern 1
 122             	0.7         	0.05568     	1             	;Pattern 1
 140             	1.5         	0.02784     	1             	;Pattern 1
 146             	0.8         	0.0485      	1             	;Pattern 1
 147             	1.5         	0.02088     	1             	;Pattern 1
 150             	1.5         	0.02088     	1             	;Pattern 1
 169             	1.5         	0.04872     	1             	;Pattern 1
 184             	1.5         	0.02784     	1             	;Pattern 1
 187             	1.5         	0.0         	1             	;Pattern 1
 210             	1.0         	0.0         	1             	;Pattern 1
 211             	0.7         	0.045       	1             	;Pattern 1
 219             	1.0         	0.05568     	1             	;Pattern 1
 222             	0.8         	0.11136     	1             	;Pattern 1
 257             	1.5         	0.04176     	1             	;Pattern 1
 269             	0.8         	0.11136     	1             	;Pattern 1
 277             	1.5         	0.02784     	1             	;Pattern 1
 284             	0.95        	0.0487      	1             	;Pattern 1
 285             	1.5         	0.06264     	1             	;Pattern 1
 292             	0.9         	0.0696      	1             	;Pattern 1
 304             	0.9         	0.0348      	1             	;Pattern 1
 322             	1.5         	0.11136     	1             	;Pattern 1
 340             	1.0         	0.02088     	1             	;Pattern 1
 353             	0.7         	0.08352     	1             	;Pattern 1
 359             	0.7         	0.08352     	1             	;Pattern 1
 362             	0.7         	0.02088     	1             	;Pattern 1
 366             	0.8         	0.042       	1             	;Pattern 1
 373             	0.8         	0.1044      	1             	;Pattern 1
 378             	1.0         	0.05568     	1             	;Pattern 1
 429             	0.8         	0.1392      	1             	;Pattern 1
 443             	1.5         	0.05568     	1             	;Pattern 1
 444             	0.87        	0.09        	1             	;Pattern 1
 455             	1.0         	0.04872     	1             	;Pattern 1
 470             	0.8         	0.0348      	1             	;Pattern 1
 472             	1.5         	0.0348      	1             	;Pattern 1
 481             	0.8         	0.0522      	1             	;Pattern 1
 526             	0.8         	0.02        	1             	;Pattern 1
 540             	0.7         	0.02784     	1             	;Pattern 1
 548             	0.9         	0.0696      	1             	;Pattern 1
 556             	1.5         	0.02784     	1             	;Pattern 1
 563             	0.9         	0.09048     	1             	;Pattern 1
 575             	1.0         	0.02784     	1             	;Pattern 1
 584             	1.0         	0.0         	1             	;Pattern 1
 594             	1.0         	0.0696      	1             	;Pattern 1
 601             	1.5         	0.02088     	1             	;Pattern 1
 606             	0.8         	0.06264     	1             	;Pattern 1
 611             	0.7         	0.08352     	1             	;Pattern 1
 612             	0.7         	0.08352     	1             	;Pattern 1
 613             	0.7         	0.0696      	1             	;Pattern 1
 624             	0.7         	0.0696      	1             	;Pattern 1
 663             	1.5         	0.02088     	1             	;Pattern 1
 667             	0.8         	0.02088     	1             	;Pattern 1
 674             	0.9         	0.04872     	1             	;Pattern 1
 686             	1.5         	0.0348      	1             	;Pattern 1
 695             	1.5         	0.02784     	1             	;Pattern 1
 699             	1.5         	0.0         	1             	;Pattern 1
 718             	0.7         	0.04872     	1             	;Pattern 1
 720             	1.5         	0.0         	1             	;Pattern 1
 722             	0.9         	0.06264     	1             	;Pattern 1
 760             	0.8         	0.0         	1             	;Pattern 1
 767             	1.5         	0.09048     	1             	;Pattern 1
 306             	1.5         	0.0348      	1             	;Pattern 1
 804             	1.5         	0.0696      	1             	;Pattern 1
 837             	0.8         	0.084       	1             	;Pattern 1
 839             	0.6         	0.02784     	1             	;Pattern 1
 868             	0.8         	0.06264     	1             	;Pattern 1
 885             	1.3         	0.04176     	1             	;Pattern 1
 914             	1.5         	0.09744     	1             	;Pattern 1
 921             	1.0         	0.0         	1             	;Pattern 1
 938             	1.5         	0.04872     	1             	;Pattern 1
 942             	0.9         	0.042       	1             	;Pattern 1
 946             	1.5         	0.02088     	1             	;Pattern 1
 965             	0.9         	0.07308     	1             	;Pattern 1
 968             	1.2         	0.01392     	1             	;Pattern 1
 972             	1.5         	0.0         	1             	;Pattern 1
 1001            	0.6         	0.02784     	1             	;Pattern 1
 1008            	0.6         	0.05568     	1             	;Pattern 1
 1018            	0.8         	0.05568     	1             	;Pattern 1
 1063            	1.5         	0.04176     	1             	;Pattern 1
 1066            	0.9         	0.084       	1             	;Pattern 1
 1069            	0.9         	0.035       	1             	;Pattern 1
 1071            	1.5         	0.02088     	1             	;Pattern 1
 1083            	0.7         	0.0696      	1             	;Pattern 1
 1085            	0.9         	0.0696      	1             	;Pattern 1
 1099            	0.7         	0.02088     	1             	;Pattern 1
 1100            	1.5         	0.00696     	1             	;Pattern 1
 1102            	1.5         	0.0417      	1             	;Pattern 1
 1128            	1.5         	0.0         	1             	;Pattern 1
 1129            	0.9         	0.02784     	1             	;Pattern 1
 1137            	1.0         	0.02784     	1             	;Pattern 1
 1151            	1.5         	0.0696      	1             	;Pattern 1
 1156            	1.0         	0.0         	1             	;Pattern 1
 1157            	1.0         	0.0696      	1             	;Pattern 1
 1162            	1.5         	0.0         	1             	;Pattern 1
 1168            	0.8         	0.05568     	1             	;Pattern 1
 1176            	1.5         	0.05568     	1             	;Pattern 1
 1177            	1.5         	0.0348      	1             	;Pattern 1
 1184            	1.5         	0.02784     	1             	;Pattern 1
 1196            	1.5         	0.02784     	1             	;Pattern 1
 1199            	1.0         	0.0         	1             	;Pattern 1
 1215            	1.0         	0.0974      	1             	;Pattern 1
 1219            	0.9         	0.01392     	1             	;Pattern 1
 1239            	1.5         	0.0696      	1             	;Pattern 1
 1243            	0.9         	0.055       	1             	;Pattern 1
 1265            	1.5         	0.02784     	1             	;Pattern 1
 1266            	1.5         	0.09048     	1             	;Pattern 1
 1275            	0.9         	0.07308     	1             	;Pattern 1
 1280            	0.8         	0.02784     	1             	;Pattern 1
 1289            	1.0         	0.02784     	1             	;Pattern 1
 1299            	0.7         	0.11136     	1             	;Pattern 1
 1323            	0.9         	0.014       	1             	;Pattern 1
 1330            	0.8         	0.05568     	1             	;Pattern 1
 1331            	0.6         	0.0522      	1             	;Pattern 1
 1338            	0.7         	0.0696      	1             	;Pattern 1
 1342            	0.7         	0.0         	1             	;Pattern 1
 1358            	1.0         	0.02784     	1             	;Pattern 1
 1359            	0.8         	0.08352     	1             	;Pattern 1
 1375            	0.9         	0.0626      	1             	;Pattern 1
 1382            	1.5         	0.02088     	1             	;Pattern 1
 1390            	1.2         	0.04872     	1             	;Pattern 1
 1411            	0.7         	0.09744     	1             	;Pattern 1
 1415            	1.3         	0.0         	1             	;Pattern 1
 1416            	1.1         	0.02784     	1             	;Pattern 1
 1427            	1.0         	0.0         	1             	;Pattern 1
 1434            	1.0         	0.02784     	1             	;Pattern 1
 1437            	0.8         	0.0         	1             	;Pattern 1
 1441            	0.8         	0.02088     	1             	;Pattern 1
 1570            	1.5         	0.0348      	1             	;Pattern 1
 1580            	1.0         	0.0696      	1             	;Pattern 1
 1581            	0.8         	0.02088     	1             	;Pattern 1
 1583            	0.8         	0.04872     	1             	;Pattern 1
 171             	1.0         	0.04872     	1             	;Pattern 1
 172             	1.0         	0.0         	1             	;Pattern 1
 173             	1.5         	0.0         	1             	;Pattern 1
 174             	1.0         	0.02088     	1             	;Pattern 1
 175             	1.0         	0.0         	1             	;Pattern 1
 384             	0.7         	0.05568     	1             	;Pattern 1
 385             	0.8         	0.09744     	1             	;Pattern 1
 390             	1.5         	0.06264     	1             	;Pattern 1
 391             	1.0         	0.0696      	1             	;Pattern 1
 392             	0.7         	0.0696      	1             	;Pattern 1
 134             	0.9         	0.05568     	1             	;Pattern 1
 163             	1.3         	0.02088     	1             	;Pattern 1
 176             	1.1         	0.04872     	1             	;Pattern 1
 177             	1.1         	0.0696      	1             	;Pattern 1
 178             	1.0         	0.06612     	1             	;Pattern 1
 179             	0.8         	0.02088     	1             	;Pattern 1
 180             	0.8         	0.0         	1             	;Pattern 1
 181             	0.8         	0.0         	1             	;Pattern 1
 182             	0.8         	0.0         	1             	;Pattern 1
 183             	0.7         	0.02784     	1             	;Pattern 1
 16              	1.5         	0.05568     	1             	;Pattern 1
 17              	1.5         	0.0568      	1             	;Pattern 1
 18              	1.1         	0.0         	1             	;Pattern 1
 19              	1.5         	0.0696      	1             	;Pattern 1
 20              	1.0         	0.0         	1             	;Pattern 1
 21              	1.0         	0.0         	1             	;Pattern 1
 27              	1.0         	0.0         	1             	;Pattern 1
 4               	0.9         	0.04872     	1             	;Pattern 1
 5               	1.0         	0.0522      	1             	;Pattern 1
 6               	1.0         	0.0696      	1             	;Pattern 1
 7               	0.8         	0.0696      	1             	;Pattern 1
 8               	1.5         	0.0         	1             	;Pattern 1
 9               	0.8         	0.02088     	1             	;Pattern 1
 11              	0.8         	0.0696      	1             	;Pattern 1
 10              	1.5         	0.04176     	1             	;Pattern 1
 12              	0.8         	0.05568     	1             	;Pattern 1
 13              	0.7         	0.01392     	1             	;Pattern 1
 1               	0.8         	0.04176     	1             	;Pattern 1
 14              	1.5         	0.0         	1             	;Pattern 1
 22              	1.5         	0.0         	1             	;Pattern 1
 23              	1.5         	0.04176     	1             	;Pattern 1
 24              	1.5         	0.0         	1             	;Pattern 1
 25              	1.5         	0.0         	1             	;Pattern 1
 26              	1.5         	0.0         	1             	;Pattern 1
 28              	1.5         	0.0         	1             	;Pattern 1
 29              	1.5         	0.0         	1             	;Pattern 1
 30              	1.5         	0.0         	1             	;Pattern 1
 32              	1.5         	0.0         	1             	;Pattern 1
 33              	1.5         	0.0         	1             	;Pattern 1
 34              	1.5         	0.0         	1             	;Pattern 1
 15              	1.5         	0.0         	1             	;Pattern 1

[RESERVOIRS]
;ID              	Head        	Pattern         
 TXU2            	5.0         	1             	;Pattern 1

[TANKS]
;ID              	Elevation   	InitLevel   	MinLevel    	MaxLevel    	Diameter    	MinVol      	VolCurve

[PIPES]
;ID              	Node1           	Node2           	Length      	Diameter    	Roughness   	MinorLoss   	Status
 OPP_TA_24845(1) 	172             	171             	100.0       	125.0       	140.0       	0.0         	OPEN  	;NULL
 3               	172             	868             	30.0        	50.0        	140.0       	0.0         	OPEN  	;NULL
 OPP_TA_24856(1) 	575             	174             	70.0        	125.0       	140.0       	0.0         	OPEN  	;NULL
 OPP_TA_24856(2) 	174             	175             	80.0        	125.0       	140.0       	0.0         	OPEN  	;NULL
 OPP-TA_24856(3) 	175             	173             	80.0        	125.0       	140.0       	0.0         	OPEN  	;NULL
 7               	384             	174             	15.0        	50.0        	140.0       	0.0         	OPEN  	;NULL
 8               	385             	175             	20.0        	50.0        	140.0       	0.0         	OPEN  	;NULL
 opp_ta_18114    	390             	173             	50.0        	125.0       	140.0       	0.0         	OPEN  	;NULL
 OPP_TA_24845(2) 	172             	391             	136.0       	125.0       	140.0       	0.0         	OPEN  	;NULL
 12              	391             	392             	15.0        	50.0        	140.0       	0.0         	OPEN  	;NULL
 OPP_TA_27378    	1411            	601             	136.0       	125.0       	140.0       	0.0         	OPEN  	;NULL
 OPP_TA_27377(1) 	718             	134             	70.0        	125.0       	140.0       	0.0         	OPEN  	;NULL
 OPP_TA_27377(2) 	134             	472             	72.0        	125.0       	140.0       	0.0         	OPEN  	;NULL
 OPP_TA_27379    	722             	720             	131.5       	125.0       	140.0       	0.0         	OPEN  	;NULL
 OPP-TA-20350(3) 	176             	177             	150.0       	125.0       	140.0       	0.0         	OPEN  	;NULL
 OPP-TA-20350(1) 	187             	163             	150.0       	125.0       	140.0       	0.0         	OPEN  	;NULL
 OPP-TA-20350(2) 	163             	176             	100.0       	125.0       	140.0       	0.0         	OPEN  	;NULL
 OPP-TA-20350(4) 	177             	178             	100.0       	125.0       	140.0       	0.0         	OPEN  	;NULL
 opp_ta_18116    	178             	179             	15.0        	50.0        	140.0       	0.0         	OPEN  	;NULL
 OPP-TA-20350(5) 	965             	178             	50.0        	125.0       	140.0       	0.0         	OPEN  	;NULL
 OPP_TA_15753(1) 	699             	1137            	150.0       	125.0       	140.0       	0.0         	OPEN  	;NULL
 opp_ta_15759    	429             	1008            	51.0        	50.0        	140.0       	0.0         	OPEN  	;NULL
 opp_ta_18239(1) 	181             	182             	50.0        	50.0        	140.0       	0.0         	OPEN  	;NULL
 opp-ta_18239(2) 	182             	183             	20.0        	50.0        	140.0       	0.0         	OPEN  	;NULL
 OPP_TA_15753(2) 	1137            	429             	200.0       	125.0       	140.0       	0.0         	OPEN  	;NULL
 opp_ta_15760    	180             	1001            	18.0        	50.0        	140.0       	0.0         	OPEN  	;NULL
 OPP_TA_15753(3) 	429             	180             	35.0        	125.0       	140.0       	0.0         	OPEN  	;NULL
 OPP_TA_15753(4) 	180             	181             	50.0        	125.0       	140.0       	0.0         	OPEN  	;NULL
 OPP_TA_15753(5) 	181             	322             	100.0       	125.0       	140.0       	0.0         	OPEN  	;NULL
 OPP_TA_15908    	699             	16              	75.0        	125.0       	140.0       	0.0         	OPEN  	;NULL
 OPP_TA_15911    	1128            	17              	69.0        	50.0        	140.0       	0.0         	OPEN  	;NULL
 OPP_TA_24843(1) 	1128            	1390            	67.0        	125.0       	140.0       	0.0         	OPEN  	;NULL
 OPP_TA_24843(2) 	1390            	563             	66.0        	125.0       	140.0       	0.0         	OPEN  	;NULL
 OPP_TA_24843(3) 	563             	1018            	300.0       	125.0       	140.0       	0.0         	OPEN  	;NULL
 OPP_TA_15910(1) 	1390            	18              	50.0        	50.0        	140.0       	0.0         	OPEN  	;NULL
 OPP_TA_18615    	18              	470             	27.0        	50.0        	140.0       	0.0         	OPEN  	;NULL
 OPP_TA_15910(2) 	18              	1129            	20.0        	50.0        	140.0       	0.0         	OPEN  	;NULL
 opp_ta_20342(1) 	686             	1570            	186.0       	125.0       	140.0       	0.0         	OPEN  	;NULL
 opp_ta_20342(5) 	1100            	1102            	50.0        	125.0       	140.0       	0.0         	OPEN  	;NULL
 opp_ta_20342(6) 	1102            	322             	50.0        	125.0       	140.0       	0.0         	OPEN  	;NULL
 opp_ta_20342(3) 	1570            	19              	100.0       	125.0       	140.0       	0.0         	OPEN  	;NULL
 opp_ta_20342(4) 	19              	1100            	20.0        	125.0       	140.0       	0.0         	OPEN  	;NULL
 opp_ta_15758    	19              	1099            	20.0        	50.0        	140.0       	0.0         	OPEN  	;NULL
 OPP_TA_24844(1) 	1570            	584             	200.0       	125.0       	140.0       	0.0         	OPEN  	;NULL
 OPP_TA_24844(2) 	584             	20              	33.0        	125.0       	140.0       	0.0         	OPEN  	;NULL
 OPP_TA_24844(3) 	20              	21              	70.0        	125.0       	140.0       	0.0         	OPEN  	;NULL
 OPP_TA_24844(4) 	21              	27              	60.0        	125.0       	140.0       	0.0         	OPEN  	;NULL
 OPP_TA_24844(5) 	27              	1018            	70.0        	125.0       	140.0       	0.0         	OPEN  	;NULL
 opp_ta_15756    	21              	359             	27.0        	50.0        	125.0       	0.0         	OPEN  	;NULL
 opp_ta_15755    	27              	362             	27.0        	50.0        	140.0       	0.0         	OPEN  	;NULL
 opp_ta_15757    	20              	353             	35.0        	50.0        	140.0       	0.0         	OPEN  	;NULL
 OPP_TA_30663(1) 	624             	760             	70.0        	125.0       	140.0       	0.0         	OPEN  	;NULL
 OPP_TA_30663(2) 	760             	674             	17.0        	125.0       	140.0       	0.0         	OPEN  	;NULL
 OPP_TA_30663(3) 	674             	584             	100.0       	125.0       	140.0       	0.0         	OPEN  	;NULL
 OPP_TA_30664    	606             	20              	136.0       	125.0       	140.0       	0.0         	OPEN  	;NULL
 OPP_TA_30665(1) 	612             	667             	71.0        	125.0       	140.0       	0.0         	OPEN  	;NULL
 OPP_TA_30665(2) 	667             	674             	60.0        	125.0       	140.0       	0.0         	OPEN  	;NULL
 OPP_TA_30666    	611             	667             	92.0        	125.0       	140.0       	0.0         	OPEN  	;NULL
 opp_ta_24855(1) 	171             	1416            	150.0       	125.0       	140.0       	0.0         	OPEN  	;NULL
 opp_ta_24855(2) 	1416            	163             	50.0        	125.0       	140.0       	0.0         	OPEN  	;NULL
 opp_ta_15126    	1416            	1580            	105.0       	125.0       	140.0       	0.0         	OPEN  	;NULL
 opp_ta_24855    	575             	171             	10.0        	125.0       	140.0       	0.0         	OPEN  	;NULL
 opp_ta_20205(1) 	1583            	4               	41.5        	125.0       	140.0       	0.0         	OPEN  	;NULL
 opp_ta_20205(2) 	4               	5               	50.0        	125.0       	140.0       	0.0         	OPEN  	;NULL
 opp_ta_20205(3) 	5               	885             	50.0        	125.0       	140.0       	0.0         	OPEN  	;NULL
 opp_ta_20205(4) 	885             	6               	50.0        	125.0       	140.0       	0.0         	OPEN  	;NULL
 opp_ta_20205(5) 	6               	7               	50.0        	125.0       	140.0       	0.0         	OPEN  	;NULL
 0pp_ta_2(2)     	914             	695             	150.0       	125.0       	140.0       	0.0         	OPEN  	;NULL
 0pp_ta_2(4)     	3               	2               	80.0        	125.0       	140.0       	0.0         	OPEN  	;NULL
 0pp_ta_2(3)     	2               	914             	100.0       	125.0       	140.0       	0.0         	OPEN  	;NULL
 opp_ta_27370(3) 	1427            	804             	60.0        	125.0       	140.0       	0.0         	OPEN  	;NULL
 0pp_ta_1(2)     	8               	169             	100.0       	125.0       	140.0       	0.0         	OPEN  	;NULL
 0pp_ta_2(1)     	695             	8               	75.0        	125.0       	140.0       	0.0         	OPEN  	;NULL
 opp_ta_16120(1) 	31              	1157            	57.0        	125.0       	140.0       	0.0         	OPEN  	;NULL
 opp_ta_16120(2) 	1157            	43              	50.0        	125.0       	140.0       	0.0         	OPEN  	;NULL
 opp_ta_15769    	1083            	9               	80.0        	50.0        	140.0       	0.0         	OPEN  	;NULL
 opp_ta_20343(2) 	968             	455             	70.0        	125.0       	140.0       	0.0         	OPEN  	;NULL
 opp_ta_20343(3) 	455             	1219            	20.0        	125.0       	140.0       	0.0         	OPEN  	;NULL
 opp_ta_20343(6) 	9               	1199            	20.0        	125.0       	140.0       	0.0         	OPEN  	;NULL
 opp_ta_20343(7) 	1199            	1196            	80.0        	125.0       	140.0       	0.0         	OPEN  	;NULL
 opp_ta_20344(3) 	1215            	11              	80.0        	125.0       	140.0       	0.0         	OPEN  	;NULL
 opp_ta_20344(2) 	11              	64              	150.0       	125.0       	140.0       	0.0         	OPEN  	;NULL
 opp_ta_20344(1) 	64              	31              	39.0        	125.0       	140.0       	0.0         	OPEN  	;NULL
 opp_ta_20344(4) 	1215            	10              	50.0        	125.0       	140.0       	0.0         	OPEN  	;NULL
 opp_ta_20346(1) 	177             	210             	65.0        	125.0       	140.0       	0.0         	OPEN  	;NULL
 opp_ta_20346(2) 	210             	921             	15.0        	125.0       	140.0       	0.0         	OPEN  	;NULL
 opp_ta_20346(3) 	921             	219             	35.0        	125.0       	140.0       	0.0         	OPEN  	;NULL
 opp_ta_20346(4) 	219             	1085            	30.0        	125.0       	140.0       	0.0         	OPEN  	;NULL
 opp_ta_20349(1) 	921             	965             	85.0        	125.0       	140.0       	0.0         	OPEN  	;NULL
 opp_ta_20349(2) 	965             	65              	50.0        	125.0       	140.0       	0.0         	OPEN  	;NULL
 opp_ta_20343(0) 	972             	65              	40.0        	125.0       	140.0       	0.0         	OPEN  	;NULL
 opp_ta_20343(1) 	65              	968             	30.0        	125.0       	140.0       	0.0         	OPEN  	;NULL
 opp_ta_15090(1) 	1085            	12              	38.0        	125.0       	140.0       	0.0         	OPEN  	;NULL
 opp_ta_15090(2) 	12              	839             	18.0        	125.0       	140.0       	0.0         	OPEN  	;NULL
 2               	1196            	10              	2.0         	125.0       	140.0       	0.0         	OPEN  	;NULL
 4               	10              	443             	30.0        	125.0       	140.0       	0.0         	OPEN  	;NULL
 11              	443             	1063            	30.0        	125.0       	140.0       	0.0         	OPEN  	;NULL
 13              	1063            	1071            	20.0        	125.0       	140.0       	0.0         	OPEN  	;NULL
 24              	946             	99              	30.0        	125.0       	140.0       	0.0         	OPEN  	;NULL
 26              	99              	88              	50.0        	125.0       	140.0       	0.0         	OPEN  	;NULL
 27              	88              	1382            	80.0        	125.0       	140.0       	0.0         	OPEN  	;NULL
 opp_ta_15866    	99              	93              	55.0        	125.0       	140.0       	0.0         	OPEN  	;NULL
 opp_ta_20342(7) 	322             	972             	100.0       	125.0       	140.0       	0.0         	OPEN  	;NULL
 opp_ta_20342(8) 	972             	31              	20.0        	180.0       	140.0       	0.0         	OPEN  	;NULL
 opp_ta_20342(9) 	31              	663             	120.0       	125.0       	140.0       	0.0         	OPEN  	;NULL
 opp_ta_20342(10)	663             	1265            	120.0       	125.0       	140.0       	0.0         	OPEN  	;NULL
 opp_ta_20342(11)	1265            	1266            	120.0       	125.0       	140.0       	0.0         	OPEN  	;NULL
 36              	1382            	556             	50.0        	125.0       	140.0       	0.0         	OPEN  	;NULL
 37              	556             	150             	50.0        	125.0       	140.0       	0.0         	OPEN  	;NULL
 38              	150             	1239            	80.0        	125.0       	140.0       	0.0         	OPEN  	;NULL
 39              	1239            	1266            	80.0        	125.0       	140.0       	0.0         	OPEN  	;NULL
 opp_ta_15867(1) 	946             	1415            	30.0        	50.0        	140.0       	0.0         	OPEN  	;NULL
 opp_ta_15867(2) 	1415            	594             	35.0        	50.0        	140.0       	0.0         	OPEN  	;NULL
 opp_ta_15867(3) 	594             	1441            	20.0        	50.0        	140.0       	0.0         	OPEN  	;NULL
 opp_ta_15867(4) 	1441            	540             	40.0        	50.0        	140.0       	0.0         	OPEN  	;NULL
 opp_ta_15867(5) 	540             	122             	30.0        	50.0        	140.0       	0.0         	OPEN  	;NULL
 opp_ta_15868(2) 	117             	121             	30.0        	50.0        	140.0       	0.0         	OPEN  	;NULL
 opp_ta_15868(3) 	121             	122             	5.0         	50.0        	140.0       	0.0         	OPEN  	;NULL
 opp_ta_15868(4) 	122             	1342            	10.0        	50.0        	140.0       	0.0         	OPEN  	;NULL
 opp_ta_15868(5) 	1342            	1338            	30.0        	50.0        	140.0       	0.0         	OPEN  	;NULL
 opp_ta_16151    	1342            	1184            	79.0        	125.0       	140.0       	0.0         	OPEN  	;NULL
 opp_ta_16154    	140             	1359            	42.0        	125.0       	140.0       	0.0         	OPEN  	;NULL
 opp_ta_16034(1) 	1162            	378             	40.0        	125.0       	140.0       	0.0         	OPEN  	;NULL
 opp_ta_16035    	378             	1168            	20.0        	50.0        	140.0       	0.0         	OPEN  	;NULL
 opp_ta_16034(2) 	378             	1156            	33.0        	125.0       	140.0       	0.0         	OPEN  	;NULL
 opp_ta_16034(3) 	1156            	373             	43.0        	125.0       	140.0       	0.0         	OPEN  	;NULL
 opp_ta_20336(1) 	1176            	1289            	40.0        	125.0       	140.0       	0.0         	OPEN  	;NULL
 opp_ta_20336(2) 	1289            	481             	70.0        	125.0       	140.0       	0.0         	OPEN  	;NULL
 opp_ta_20336(3) 	481             	1299            	60.0        	125.0       	140.0       	0.0         	OPEN  	;NULL
 opp_ta_15411(1) 	1177            	1275            	84.0        	125.0       	140.0       	0.0         	OPEN  	;NULL
 opp_ta_15411(2) 	1275            	1280            	20.0        	125.0       	140.0       	0.0         	OPEN  	;NULL
 opp_ta_15414    	1275            	13              	10.0        	50.0        	140.0       	0.0         	OPEN  	;NULL
 opp_ta_16033(1) 	150             	767             	97.5        	125.0       	140.0       	0.0         	OPEN  	;NULL
 opp_ta_16033(2) 	767             	285             	50.0        	125.0       	140.0       	0.0         	OPEN  	;NULL
 opp_ta_16033(3) 	285             	277             	20.0        	125.0       	140.0       	0.0         	OPEN  	;NULL
 opp_ta_16033(4) 	277             	140             	30.0        	125.0       	140.0       	0.0         	OPEN  	;NULL